Version 4.1
SHEET 1 880 680
WIRE -16 -160 -160 -160
WIRE 224 -128 224 -160
WIRE 224 -128 112 -128
WIRE 320 -128 224 -128
WIRE -160 -112 -160 -160
WIRE 112 -112 112 -128
WIRE 112 -112 96 -112
WIRE 320 -112 320 -128
WIRE 336 -112 320 -112
WIRE 496 -112 496 -144
WIRE 496 -112 480 -112
WIRE 96 -64 96 -112
WIRE 112 -64 96 -64
WIRE 336 -64 336 -112
WIRE 336 -64 320 -64
WIRE 496 -64 496 -112
WIRE 496 -64 480 -64
WIRE 160 -32 160 -96
WIRE 272 -32 160 -32
WIRE 432 -32 400 -32
WIRE 112 0 112 -16
WIRE 160 0 160 -32
WIRE 160 0 112 0
WIRE -352 16 -352 -16
WIRE 112 16 112 0
WIRE 320 16 320 -16
WIRE 320 32 320 16
WIRE 400 32 400 -32
WIRE 400 32 320 32
WIRE 480 32 480 -16
WIRE 480 32 464 32
WIRE 112 48 112 16
WIRE 320 48 320 32
WIRE 176 64 160 64
WIRE 192 64 176 64
WIRE 112 96 80 96
WIRE -352 112 -352 96
WIRE -160 112 -160 -112
WIRE -16 112 -16 -160
WIRE 320 112 320 96
WIRE 336 112 320 112
WIRE 480 112 480 32
WIRE 544 112 480 112
WIRE 576 112 544 112
WIRE -352 128 -352 112
WIRE 256 128 240 128
WIRE 272 128 256 128
WIRE 80 144 80 96
WIRE 112 144 80 144
WIRE 336 144 336 112
WIRE 336 144 320 144
WIRE 112 176 112 144
WIRE 224 176 112 176
WIRE 320 176 320 144
WIRE 320 176 224 176
WIRE 480 192 480 112
WIRE 576 192 576 176
WIRE -160 208 -160 192
WIRE -16 208 -16 192
WIRE 64 208 -16 208
WIRE 224 208 224 176
WIRE -352 224 -352 208
WIRE -16 224 -16 208
WIRE 224 224 224 208
WIRE 480 224 480 192
WIRE 64 240 64 208
WIRE 64 240 32 240
WIRE 112 240 64 240
WIRE -16 272 -48 272
WIRE 240 272 224 272
WIRE 496 272 480 272
WIRE 112 304 112 240
WIRE 176 304 112 304
WIRE 432 304 176 304
WIRE 240 320 240 272
WIRE 240 320 224 320
WIRE 496 320 496 272
WIRE 496 320 480 320
WIRE -48 336 -48 272
WIRE -16 336 -16 320
WIRE -16 336 -48 336
WIRE 224 336 224 320
WIRE 480 336 480 320
WIRE -16 352 -16 336
FLAG 224 336 0
FLAG -16 352 0
FLAG 576 192 0
FLAG 176 64 Vin1
FLAG 256 128 Vin2
FLAG -160 208 0
FLAG 480 336 0
FLAG 112 -128 VD3
FLAG 320 -128 VD4
FLAG 112 16 VD1
FLAG 320 16 VD2
FLAG 224 208 VD5
FLAG -16 208 VD8
FLAG 480 192 VD7
FLAG -352 224 0
FLAG -352 112 Vin1
FLAG -160 -112 VDD
FLAG 496 -144 VDD
FLAG -352 -16 Vin2
FLAG 224 -160 VDD
FLAG 544 112 Vout
SYMBOL cap 560 112 R0
SYMATTR InstName CL1
SYMATTR Value 2p
SYMBOL current -16 112 R0
WINDOW 123 0 0 Left 0
WINDOW 39 0 0 Left 0
SYMATTR InstName I1
SYMATTR Value 20µ
SYMBOL voltage -160 96 R0
WINDOW 123 0 0 Left 0
WINDOW 39 0 0 Left 0
SYMATTR InstName VDD1
SYMATTR Value 1.8
SYMBOL TSMC_180\\cmosn 32 320 R180
SYMATTR InstName M8
SYMATTR Value2 l=1u w=3u
SYMBOL TSMC_180\\cmosn 176 224 R0
SYMATTR InstName M5
SYMATTR Value2 l=1u w=3u
SYMBOL TSMC_180\\cmosn 272 48 R0
SYMATTR InstName M2
SYMATTR Value2 l=0.5u w=2.5u
SYMBOL TSMC_180\\cmosn 160 144 R180
SYMATTR InstName M1
SYMATTR Value2 l=0.5u w=2.5u
SYMBOL TSMC_180\\cmosp 272 -112 R0
SYMATTR InstName M4
SYMATTR Value2 l=0.5u w=3.5u
SYMBOL TSMC_180\\cmosp 160 -16 R180
SYMATTR InstName M3
SYMATTR Value2 l=0.5u w=3.5u
SYMBOL TSMC_180\\cmosp 432 -112 R0
SYMATTR InstName M6
SYMATTR Value2 l=0.5u w=31.5u
SYMBOL TSMC_180\\cmosn 432 224 R0
SYMATTR InstName M7
SYMATTR Value2 l=1u w=13.5u
SYMBOL cap 400 48 R270
WINDOW 0 32 32 VTop 2
WINDOW 3 0 32 VBottom 2
SYMATTR InstName Cc1
SYMATTR Value 480f
SYMBOL voltage -352 112 R0
WINDOW 123 24 124 Left 2
WINDOW 39 0 0 Left 0
WINDOW 0 34 63 Left 2
SYMATTR InstName V1
SYMATTR Value 1.6
SYMBOL voltage -352 0 R0
WINDOW 123 24 124 Left 2
WINDOW 39 0 0 Left 0
SYMATTR Value2 AC 1
SYMATTR InstName V2
SYMATTR Value ""
TEXT -344 -208 Left 2 !.include "C:\\Users\\swaru\\Documents\\LTspice\\lib\\sub\\tsmc018.lib"
TEXT -392 288 Left 2 !.op
TEXT -392 320 Left 2 ;.ac dec 100 1 100Meg
